
     RDKit          3D

 12 11  0  0  0  0  0  0  0  0999 V2000
    9.6970    5.6480  -10.0160 N   0  0  0  0  0  0  0  0  0  0  0  0
    8.2360    5.7560  -10.3060 C   0  0  2  0  0  0  0  0  0  0  0  0
    7.5110    6.3780   -9.0980 C   0  0  0  0  0  0  0  0  0  0  0  0
    8.0530    6.3210   -8.0070 O   0  0  0  0  0  0  0  0  0  0  0  0
    7.6710    4.3570  -10.5890 C   0  0  0  0  0  0  0  0  0  0  0  0
    6.2920    4.4810  -11.2460 C   0  0  0  0  0  0  0  0  0  0  0  0
    5.2050    4.1500  -10.2220 C   0  0  0  0  0  0  0  0  0  0  0  0
    3.9000    4.7080  -10.6990 N   0  0  0  0  0  0  0  0  0  0  0  0
    3.2380    5.5610   -9.9810 C   0  0  0  0  0  0  0  0  0  0  0  0
    3.8540    6.4520   -9.2800 N   0  0  0  0  0  0  0  0  0  0  0  0
    1.9500    5.5260   -9.9840 N   0  0  0  0  0  0  0  0  0  0  0  0
    6.4250    6.9010   -9.2840 O   0  0  0  0  0  0  0  0  0  0  0  0
  2  1  1  1
  3  2  1  0
  4  3  1  0
  5  2  1  0
  6  5  1  0
  7  6  1  0
  8  7  1  0
  9  8  1  0
 10  9  1  0
 11  9  1  0
 12  3  1  0
M  CHG  1   1   1
M  END
$$$$
