
     RDKit          3D

 48 51  0  0  0  0  0  0  0  0999 V2000
   -6.5970    7.4570    1.9130 N   0  0  0  0  0  0  0  0  0  0  0  0
   -8.2440    8.6910    3.3310 C   0  0  2  0  0  0  0  0  0  0  0  0
   -7.6480    6.6690    4.1700 C   0  0  0  0  0  0  0  0  0  0  0  0
   -8.5470    7.2440    5.1390 N   0  0  0  0  0  0  0  0  0  0  0  0
   -7.4590    7.5880    3.0320 C   0  0  2  0  0  0  0  0  0  0  0  0
   -8.9180    6.5790    6.3480 C   0  0  0  0  0  0  0  0  0  0  0  0
   -8.8750    8.4930    4.5440 C   0  0  2  0  0  0  0  0  0  0  0  0
   -9.7690    9.2940    5.1290 C   0  0  0  0  0  0  0  0  0  0  0  0
  -10.1320    8.9310    6.1080 O   0  0  0  0  0  0  0  0  0  0  0  0
  -10.0500   10.3980    4.4700 N   0  0  0  0  0  0  0  0  0  0  0  0
  -11.0610   11.2140    5.0570 C   0  0  2  0  0  0  0  0  0  0  0  0
  -11.8480   12.1910    4.2840 C   0  0  0  0  0  0  0  0  0  0  0  0
  -11.3530   11.4020    6.3400 C   0  0  0  0  0  0  0  0  0  0  0  0
  -12.2750   12.3550    6.4970 N   0  0  0  0  0  0  0  0  0  0  0  0
  -12.7390   12.7930    7.8710 C   0  0  0  0  0  0  0  0  0  0  0  0
  -12.6040   12.8500    5.3390 C   0  0  1  0  0  0  0  0  0  0  0  0
  -13.4270   13.9930    5.1430 C   0  0  1  0  0  0  0  0  0  0  0  0
  -13.5690   14.8260    6.2510 O   0  0  0  0  0  0  0  0  0  0  0  0
  -13.8940   19.5540    7.6410 N   0  0  0  0  0  0  0  0  0  0  0  0
  -12.7250   18.7180    7.7800 C   0  0  0  0  0  0  0  0  0  0  0  0
  -13.5910   20.9800    7.8440 C   0  0  0  0  0  0  0  0  0  0  0  0
  -14.6360   19.2830    6.3870 C   0  0  0  0  0  0  0  0  0  0  0  0
  -16.2010   19.8500    4.4290 C   0  0  0  0  0  0  0  0  0  0  0  0
  -15.3630   20.4050    5.5820 C   0  0  0  0  0  0  0  0  0  0  0  0
  -16.0020   18.3880    4.5010 N   0  0  0  0  0  0  0  0  0  0  0  0
   -4.6160    3.3930    0.4630 C   0  0  0  0  0  0  0  0  0  0  0  0
   -4.4280    4.8030    0.0780 N   0  0  0  0  0  0  0  0  0  0  0  0
   -3.5340    5.1810   -0.9270 C   0  0  0  0  0  0  0  0  0  0  0  0
   -2.7930    7.4480   -2.0840 N   0  0  0  0  0  0  0  0  0  0  0  0
   -3.5380    6.6580   -1.1360 C   0  0  1  0  0  0  0  0  0  0  0  0
   -4.5250    7.2170   -0.2190 C   0  0  0  0  0  0  0  0  0  0  0  0
   -5.0930    6.1160    0.5490 C   0  0  2  0  0  0  0  0  0  0  0  0
   -6.0710    6.2530    1.6300 C   0  0  0  0  0  0  0  0  0  0  0  0
   -6.3960    5.2240    2.2860 O   0  0  0  0  0  0  0  0  0  0  0  0
   -0.8370    6.2670   -6.0490 C   0  0  0  0  0  0  0  0  0  0  0  0
   -0.8760    7.5580   -5.2710 N   0  0  0  0  0  0  0  0  0  0  0  0
   -0.3660    8.7700   -5.7730 C   0  0  0  0  0  0  0  0  0  0  0  0
   -0.5210    9.7510   -4.8170 C   0  0  0  0  0  0  0  0  0  0  0  0
   -1.1020    9.2180   -3.7130 N   0  0  0  0  0  0  0  0  0  0  0  0
   -1.3140    7.8570   -3.9740 C   0  0  1  0  0  0  0  0  0  0  0  0
   -1.9800    6.9230   -3.0980 C   0  0  0  0  0  0  0  0  0  0  0  0
   -1.7790    5.6700   -3.2970 O   0  0  0  0  0  0  0  0  0  0  0  0
  -15.7830   17.8020    2.3900 O   0  0  0  0  0  0  0  0  0  0  0  0
  -15.7270   17.5100    3.5860 C   0  0  2  0  0  0  0  0  0  0  0  0
  -15.4410   16.1370    4.1080 C   0  0  0  0  0  0  0  0  0  0  0  0
  -14.9340   14.9750    3.3000 C   0  0  0  0  0  0  0  0  0  0  0  0
  -13.8680   14.1240    3.9810 N   0  0  0  0  0  0  0  0  0  0  0  0
   -8.5150    9.6900    2.4820 O   0  0  0  0  0  0  0  0  0  0  0  0
  4  3  1  0
  5  3  1  0
  5  2  1  0
  5  1  1  1
  6  4  1  0
  7  4  1  0
  7  2  1  0
  7  8  1  6
  9  8  1  0
 10  8  1  0
 11 10  1  1
 12 11  1  0
 13 11  1  0
 14 13  1  0
 15 14  1  0
 16 12  1  1
 16 14  1  0
 17 16  1  0
 17 18  1  6
 20 19  1  0
 21 19  1  0
 22 19  1  0
 24 23  1  0
 24 22  1  0
 25 23  1  0
 27 26  1  0
 28 27  1  0
 30 28  1  0
 30 29  1  6
 31 30  1  0
 32 27  1  0
 32 31  1  0
 33  1  1  0
 32 33  1  1
 34 33  1  0
 36 35  1  0
 37 36  1  0
 38 37  1  0
 39 38  1  0
 40 39  1  0
 40 36  1  0
 40 41  1  6
 41 29  1  0
 42 41  1  0
 44 43  1  6
 44 25  1  0
 45 44  1  0
 46 45  1  0
 47 46  1  0
 47 17  1  0
  2 48  1  6
M  END
$$$$
